data_r3c
_space_group_IT_number           161
_symmetry_space_group_name_Hall  'R 3 -2"c'
_symmetry_space_group_name_H-M   'R 3 c :H'
_symmetry_cell_setting           trigonal
_cell_angle_alpha                90.00
_cell_angle_beta                 90.00
_cell_angle_gamma                120.00
_cell_formula_units_Z            18
_cell_length_a                   34.4501(4)
_cell_length_b                   34.4501(4)
_cell_length_c                   11.2367(3)
_cell_volume                     11549.2(4)
loop_
_symmetry_equiv_pos_as_xyz
'x,y,z'
'-y,x-y,z'
'-x+y,-x, z'
'-y,-x,z+1/2'
'-x+y,y,z+1/2'
'x,x-y,z+1/2'
'x+2/3,y+1/3,z+1/3'
'-y+2/3,x-y+1/3,z+1/3'
'-x+y+2/3,-x+1/3,z+1/3'
'-y+2/3,-x+1/3,z+5/6'
'-x+y+2/3,y+1/3,z+5/6'
'x+2/3,x-y+1/3,z+5/6'
'x+1/3,y+2/3,z+2/3'
'-y+1/3,x-y+2/3,z+2/3'
'-x+y+1/3,-x+2/3,z+2/3'
'-y+1/3,-x+2/3,z+1/6'
'-x+y+1/3,y+2/3,z+1/6'
'x+1/3,x-y+2/3,z+1/6'
loop_
_atom_site_label
_atom_site_type_symbol
_atom_site_fract_x
_atom_site_fract_y
_atom_site_fract_z
_atom_site_U_iso_or_equiv
_atom_site_adp_type
_atom_site_occupancy
_atom_site_symmetry_multiplicity
_atom_site_calc_flag
_atom_site_refinement_flags
O1 O 0.04836(4) 0.88495(4) 0.15385(10) 0.0506(3) Uani 1 1 d .
O2 O 0.03029(4) 0.81300(4) 0.13701(9) 0.0446(3) Uani 1 1 d .
O3 O -0.01890(4) 0.78645(5) -0.13902(10) 0.0630(4) Uani 1 1 d .
O4 O 0.08378(5) 0.84576(5) -0.13789(12) 0.0668(4) Uani 1 1 d .
C1 C 0.10339(8) 0.77846(9) -0.0899(2) 0.0809(7) Uani 1 1 d .
H1A H 0.1246 0.8034 -0.1317 0.097 Uiso 1 1 calc R
C2 C 0.10903(14) 0.74234(14) -0.0757(3) 0.1207(11) Uani 1 1 d .
H2A H 0.1344 0.7429 -0.1066 0.145 Uiso 1 1 calc R
C3 C 0.07784(16) 0.70537(14) -0.0165(3) 0.1238(12) Uani 1 1 d .
H3A H 0.0820 0.6808 -0.0076 0.149 Uiso 1 1 calc R
C4 C 0.04034(12) 0.70393(9) 0.0302(3) 0.1081(10) Uani 1 1 d .
H4A H 0.0189 0.6784 0.0695 0.130 Uiso 1 1 calc R
C5 C 0.03479(9) 0.74081(7) 0.0182(2) 0.0754(6) Uani 1 1 d .
H5A H 0.0098 0.7404 0.0512 0.090 Uiso 1 1 calc R
C6 C 0.06622(7) 0.77821(6) -0.04252(15) 0.0545(4) Uani 1 1 d .
C7 C -0.09894(6) 0.75491(7) -0.01827(18) 0.0622(5) Uani 1 1 d .
H7A H -0.0991 0.7406 -0.0886 0.075 Uiso 1 1 calc R
C8 C -0.13881(7) 0.74370(8) 0.0368(2) 0.0787(6) Uani 1 1 d .
H8A H -0.1657 0.7213 0.0049 0.094 Uiso 1 1 calc R
C9 C -0.13901(7) 0.76555(8) 0.1392(2) 0.0744(6) Uani 1 1 d .
H9A H -0.1660 0.7585 0.1754 0.089 Uiso 1 1 calc R
C10 C -0.09938(7) 0.79770(7) 0.18760(19) 0.0631(5) Uani 1 1 d .
H10A H -0.0995 0.8123 0.2570 0.076 Uiso 1 1 calc R
C11 C -0.05930(6) 0.80843(5) 0.13398(15) 0.0489(4) Uani 1 1 d .
H11A H -0.0325 0.8300 0.1681 0.059 Uiso 1 1 calc R
C12 C -0.05847(5) 0.78736(5) 0.02978(14) 0.0433(4) Uani 1 1 d .
C13 C 0.02230(7) 0.89795(6) -0.15686(16) 0.0574(5) Uani 1 1 d .
H13A H 0.0386 0.8876 -0.1990 0.069 Uiso 1 1 calc R
C14 C -0.00124(8) 0.91433(7) -0.21755(18) 0.0697(6) Uani 1 1 d .
H14A H -0.0008 0.9149 -0.3003 0.084 Uiso 1 1 calc R
C15 C -0.02520(7) 0.92978(7) -0.1567(2) 0.0691(6) Uani 1 1 d .
H15A H -0.0414 0.9405 -0.1978 0.083 Uiso 1 1 calc R
C16 C -0.02521(7) 0.92934(7) -0.0352(2) 0.0692(6) Uani 1 1 d .
H16A H -0.0412 0.9401 0.0064 0.083 Uiso 1 1 calc R
C17 C -0.00173(7) 0.91301(6) 0.02626(18) 0.0580(5) Uani 1 1 d .
H17A H -0.0018 0.9130 0.1090 0.070 Uiso 1 1 calc R
C18 C 0.02186(5) 0.89670(5) -0.03423(14) 0.0440(4) Uani 1 1 d .
C19 C 0.03020(5) 0.82653(5) 0.01748(13) 0.0415(4) Uani 1 1 d .
C20 C 0.04791(5) 0.87844(5) 0.02849(14) 0.0449(4) Uani 1 1 d .
H20A H 0.0789 0.8947 -0.0003 0.054 Uiso 1 1 calc R
C21 C 0.05792(6) 0.85329(5) 0.20332(14) 0.0475(4) Uani 1 1 d .
H21A H 0.0897 0.8628 0.1922 0.057 Uiso 1 1 calc R
C22 C 0.04566(6) 0.84468(6) 0.33249(15) 0.0495(4) Uani 1 1 d .
C23 C 0.02136(7) 0.86133(6) 0.38556(16) 0.0602(5) Uani 1 1 d .
H23A H 0.0129 0.8787 0.3414 0.072 Uiso 1 1 calc R
C24 C 0.00899(8) 0.85255(7) 0.50563(19) 0.0773(6) Uani 1 1 d .
H24A H -0.0077 0.8640 0.5402 0.093 Uiso 1 1 calc R
C25 C 0.02093(9) 0.82800(9) 0.57036(18) 0.0805(7) Uani 1 1 d .
H25A H 0.0127 0.8229 0.6502 0.097 Uiso 1 1 calc R
C26 C 0.04553(7) 0.80968(8) 0.52140(17) 0.0704(6) Uani 1 1 d .
C27 C 0.05829(6) 0.81769(7) 0.39910(16) 0.0581(5) Uani 1 1 d .
C28 C 0.08167(8) 0.79785(9) 0.3497(2) 0.0840(7) Uani 1 1 d .
H28A H 0.0906 0.8032 0.2704 0.101 Uiso 1 1 calc R
C29 C 0.09135(10) 0.77094(13) 0.4168(3) 0.1240(12) Uani 1 1 d .
H29A H 0.1067 0.7578 0.3834 0.149 Uiso 1 1 calc R
C30 C 0.07809(12) 0.76298(13) 0.5378(3) 0.1318(13) Uani 1 1 d .
H30A H 0.0845 0.7443 0.5831 0.158 Uiso 1 1 calc R
C31 C 0.05668(10) 0.78187(12) 0.5875(3) 0.1061(10) Uani 1 1 d .
H31A H 0.0489 0.7766 0.6675 0.127 Uiso 1 1 calc R
C32 C -0.01694(6) 0.79883(5) -0.03737(14) 0.0436(4) Uani 1 1 d .
C33 C 0.06230(6) 0.81848(6) -0.06197(14) 0.0481(4) Uani 1 1 d .
